*SPICE Netlist for circuit 1
M1 3 2 1 1 PMOS W=1u L=1u
.MODEL PMOS PMOS (LEVEL=1 VTO=1 KP=1.0e-4 LAMBDA=0.02)

.OP
.END

