*SPICE Netlist for circuit 38
I1 0 1 DC 1mA
M1 1 2 0 0 NMOS W=1u L=1u
.MODEL NMOS NMOS (LEVEL=1 VTO=1 KP=1.0e-4 LAMBDA=0.02)

.OP
.END

